Version 4
SHEET 1 1732 680
WIRE -464 -64 -496 -64
WIRE -416 -64 -464 -64
WIRE -368 -64 -416 -64
WIRE -224 -64 -288 -64
WIRE -16 -64 -144 -64
WIRE 16 -64 -16 -64
WIRE 1360 0 736 0
WIRE -576 16 -576 -64
WIRE -464 32 -464 -64
WIRE -416 32 -416 -64
WIRE -16 32 -16 -64
WIRE -16 32 -336 32
WIRE 288 32 -16 32
WIRE 992 32 288 32
WIRE 1072 32 992 32
WIRE 1392 32 1072 32
WIRE 288 48 288 32
WIRE 288 48 256 48
WIRE 992 48 992 32
WIRE 256 64 256 48
WIRE 1392 64 1392 32
WIRE -336 80 -336 32
WIRE -320 80 -336 80
WIRE 96 80 96 -64
WIRE 96 80 -96 80
WIRE 1072 80 1072 32
WIRE 1088 80 1072 80
WIRE 1344 80 1312 80
WIRE 288 128 256 128
WIRE -464 144 -464 96
WIRE -320 144 -464 144
WIRE -64 144 -96 144
WIRE 992 144 992 128
WIRE 1088 144 992 144
WIRE 1360 144 1360 0
WIRE 1360 144 1312 144
WIRE 288 160 288 128
WIRE -576 176 -576 96
WIRE -416 176 -416 96
WIRE -416 176 -576 176
WIRE -416 208 -416 176
WIRE -320 208 -368 208
WIRE -32 208 -96 208
WIRE -16 208 -32 208
WIRE 224 208 64 208
WIRE 992 208 992 144
WIRE 1088 208 992 208
WIRE 1392 208 1312 208
WIRE -320 272 -352 272
WIRE -80 272 -96 272
WIRE 1088 272 1056 272
WIRE 1328 272 1312 272
WIRE -336 320 -336 80
WIRE -80 320 -80 272
WIRE -80 320 -336 320
WIRE 992 320 992 208
WIRE 992 320 832 320
WIRE 1072 320 1072 80
WIRE 1328 320 1328 272
WIRE 1328 320 1072 320
WIRE -416 336 -416 288
WIRE -368 336 -368 208
WIRE -368 336 -416 336
WIRE -64 336 -64 144
WIRE -64 336 -368 336
WIRE -416 352 -416 336
WIRE -352 352 -352 272
WIRE 992 352 992 320
WIRE 1056 352 1056 272
WIRE -32 368 -32 208
WIRE 624 368 -32 368
WIRE 736 368 736 0
WIRE 736 368 704 368
WIRE 768 368 736 368
WIRE -416 432 -416 416
WIRE -352 432 -352 416
WIRE 96 432 96 80
WIRE 288 432 288 256
WIRE 832 432 832 416
WIRE 992 432 992 416
WIRE 1056 432 1056 416
WIRE 1344 432 1344 80
FLAG 96 432 0
FLAG -352 432 0
FLAG -416 432 0
FLAG 288 432 0
FLAG 1344 432 0
FLAG 1056 432 0
FLAG 992 432 0
FLAG 832 432 0
SYMBOL Misc\\NE555 -208 176 M0
SYMATTR InstName U1
SYMBOL cap -336 352 M0
WINDOW 0 -30 8 Left 2
WINDOW 3 -60 56 Left 2
SYMATTR InstName C1
SYMATTR Value .01µf
SYMBOL voltage 0 -64 M90
WINDOW 0 38 2 VRight 2
WINDOW 3 36 83 VRight 2
WINDOW 123 0 0 Left 2
WINDOW 39 68 -1 VRight 2
SYMATTR InstName V1
SYMATTR Value 9
SYMATTR SpiceLine Rser=9
SYMBOL cap -400 352 M0
SYMATTR InstName C2
SYMATTR Value 10µf
SYMBOL res -592 -80 M90
WINDOW 0 0 56 VBottom 2
WINDOW 3 32 56 VTop 2
SYMATTR InstName R3
SYMATTR Value 210K
SYMBOL diode -432 32 R0
SYMATTR InstName D1
SYMATTR Value 1N4148
SYMBOL diode -448 32 M0
SYMATTR InstName D2
SYMATTR Value 1N4148
SYMBOL res -384 -80 M90
WINDOW 0 0 56 VBottom 2
WINDOW 3 32 56 VTop 2
SYMATTR InstName R5
SYMATTR Value 78K
SYMBOL res -400 304 R180
WINDOW 0 36 76 Left 2
WINDOW 3 36 40 Left 2
SYMATTR InstName R4
SYMATTR Value 2000K
SYMATTR SpiceLine tol=1 pwr=0.1
SYMBOL npn 224 160 R0
SYMATTR InstName Q1
SYMATTR Value 2N2222
SYMBOL res 80 224 M270
WINDOW 0 32 56 VTop 2
WINDOW 3 0 56 VBottom 2
SYMATTR InstName R6
SYMATTR Value 10K
SYMBOL ind 272 32 R0
SYMATTR InstName L1
SYMATTR Value .1
SYMATTR SpiceLine Ipk=1 Rser=100
SYMBOL diode 272 128 R180
WINDOW 0 24 64 Left 2
WINDOW 3 24 0 Left 2
SYMATTR InstName D3
SYMATTR Value 1N4148
SYMBOL res -240 -80 M90
WINDOW 0 0 56 VBottom 2
WINDOW 3 32 56 VTop 2
SYMATTR InstName R2
SYMATTR Value 144K
SYMBOL res -560 112 R180
WINDOW 0 36 76 Left 2
WINDOW 3 36 40 Left 2
SYMATTR InstName R8
SYMATTR Value 144K
SYMBOL Misc\\NE555 1200 176 M0
SYMATTR InstName U2
SYMBOL cap 1072 352 M0
WINDOW 0 -28 7 Left 2
WINDOW 3 -59 57 Left 2
SYMATTR InstName C4
SYMATTR Value .01µf
SYMBOL cap 1008 352 M0
SYMATTR InstName C5
SYMATTR Value 20µ
SYMATTR SpiceLine V=16 Irms=0 Rser=0 Lser=0 mfg="Murata" pn="GRMJN7R61C206ME05" type="X5R"
SYMBOL res 1008 144 R180
WINDOW 0 36 76 Left 2
WINDOW 3 36 40 Left 2
SYMATTR InstName R14
SYMATTR Value 1Meg
SYMATTR SpiceLine tol=1 pwr=0.1
SYMBOL LED 1376 144 R0
WINDOW 3 24 66 Left 2
SYMATTR InstName D4
SYMATTR Value QTLP690C
SYMBOL res 1376 160 M180
WINDOW 0 36 76 Left 2
WINDOW 3 36 40 Left 2
SYMATTR InstName R9
SYMATTR Value 332
SYMATTR SpiceLine tol=1 pwr=0.1
SYMBOL pnp 768 320 R0
SYMATTR InstName Q3
SYMATTR Value 2N2907
SYMBOL res 720 384 M270
WINDOW 0 32 56 VTop 2
WINDOW 3 0 56 VBottom 2
SYMATTR InstName R7
SYMATTR Value 10K
TEXT -800 -104 Left 2 !.tran 60s startup
TEXT -288 520 Left 2 ;Controller
TEXT 352 72 Left 2 ;D.P.D.T. Relay
TEXT 1136 520 Left 2 ;Alarm Unit
