Version 4
SHEET 1 880 680
WIRE 32 -64 0 -64
WIRE 160 -64 32 -64
WIRE 304 -64 240 -64
WIRE 432 -64 384 -64
WIRE 480 -64 432 -64
WIRE 512 -64 480 -64
WIRE 592 16 592 -64
WIRE 32 32 32 -64
WIRE 32 32 -272 32
WIRE 352 32 32 32
WIRE 432 32 432 -64
WIRE 480 32 480 -64
WIRE -272 48 -272 32
WIRE -240 48 -272 48
WIRE -240 64 -240 48
WIRE -80 80 -80 -64
WIRE 112 80 -80 80
WIRE 352 80 352 32
WIRE 352 80 336 80
WIRE -240 128 -272 128
WIRE 112 144 80 144
WIRE 480 144 480 96
WIRE 480 144 336 144
WIRE -272 160 -272 128
WIRE 432 176 432 96
WIRE 592 176 592 96
WIRE 592 176 432 176
WIRE -48 208 -208 208
WIRE 112 208 32 208
WIRE 384 208 336 208
WIRE 432 208 432 176
WIRE 112 272 96 272
WIRE 368 272 336 272
WIRE 96 320 96 272
WIRE 352 320 352 80
WIRE 352 320 96 320
WIRE 80 336 80 144
WIRE 384 336 384 208
WIRE 384 336 80 336
WIRE 432 336 432 288
WIRE 432 336 384 336
WIRE 368 352 368 272
WIRE 432 352 432 336
WIRE -272 432 -272 256
WIRE -80 432 -80 80
WIRE 368 432 368 416
WIRE 432 432 432 416
FLAG -80 432 0
FLAG 368 432 0
FLAG 432 432 0
FLAG -272 432 0
SYMBOL Misc\\NE555 224 176 R0
SYMATTR InstName U1
SYMBOL cap 352 352 R0
SYMATTR InstName C1
SYMATTR Value .01µf
SYMBOL voltage 16 -64 R90
WINDOW 0 38 2 VRight 2
WINDOW 3 36 83 VRight 2
WINDOW 123 0 0 Left 2
WINDOW 39 68 -1 VRight 2
SYMATTR InstName V1
SYMATTR Value 9
SYMATTR SpiceLine Rser=9
SYMBOL cap 416 352 R0
SYMATTR InstName C2
SYMATTR Value 10µf
SYMBOL res 608 -80 R90
WINDOW 0 0 56 VBottom 2
WINDOW 3 32 56 VTop 2
SYMATTR InstName R3
SYMATTR Value 210K
SYMBOL diode 448 32 M0
SYMATTR InstName D1
SYMATTR Value 1N4148
SYMBOL diode 464 32 R0
SYMATTR InstName D2
SYMATTR Value 1N4148
SYMBOL res 400 -80 R90
WINDOW 0 0 56 VBottom 2
WINDOW 3 32 56 VTop 2
SYMATTR InstName R5
SYMATTR Value 78K
SYMBOL res 416 304 M180
WINDOW 0 36 76 Left 2
WINDOW 3 36 40 Left 2
SYMATTR InstName R4
SYMATTR Value 576K
SYMBOL npn -208 160 M0
SYMATTR InstName Q1
SYMATTR Value 2N2222
SYMBOL res -64 224 R270
WINDOW 0 32 56 VTop 2
WINDOW 3 0 56 VBottom 2
SYMATTR InstName R6
SYMATTR Value 10K
SYMBOL ind -256 32 M0
SYMATTR InstName L1
SYMATTR Value .1
SYMATTR SpiceLine Ipk=1 Rser=100
SYMBOL diode -256 128 M180
WINDOW 0 24 64 Left 2
WINDOW 3 24 0 Left 2
SYMATTR InstName D3
SYMATTR Value 1N4148
SYMBOL res 256 -80 R90
WINDOW 0 0 56 VBottom 2
WINDOW 3 32 56 VTop 2
SYMATTR InstName R2
SYMATTR Value 144K
SYMBOL res 576 112 M180
WINDOW 0 36 76 Left 2
WINDOW 3 36 40 Left 2
SYMATTR InstName R8
SYMATTR Value 144K
TEXT -392 -80 Left 2 !.tran 60s
